Version 4
SHEET 1 1076 996
WIRE -288 80 -320 80
WIRE -176 80 -224 80
WIRE -96 80 -176 80
WIRE 112 80 0 80
WIRE 176 80 112 80
WIRE 240 80 176 80
WIRE 448 80 240 80
WIRE 544 80 448 80
WIRE 640 80 544 80
WIRE 736 80 640 80
WIRE 112 112 112 80
WIRE 176 112 176 80
WIRE 240 112 240 80
WIRE 448 112 448 80
WIRE 544 112 544 80
WIRE 640 112 640 80
WIRE 736 112 736 80
WIRE -176 160 -176 80
WIRE 448 208 448 176
WIRE 544 208 544 176
WIRE 544 208 448 208
WIRE 640 208 640 176
WIRE 640 208 544 208
WIRE 736 208 736 176
WIRE 736 208 640 208
WIRE -320 240 -320 80
WIRE -176 272 -176 240
WIRE 448 288 448 208
WIRE -320 384 -320 320
WIRE -176 384 -176 352
WIRE 448 384 448 368
WIRE -224 672 -304 672
WIRE -16 672 -128 672
WIRE 48 672 -16 672
WIRE 112 672 48 672
WIRE 320 672 112 672
WIRE 416 672 320 672
WIRE 512 672 416 672
WIRE 608 672 512 672
WIRE 896 672 608 672
WIRE -16 704 -16 672
WIRE 48 704 48 672
WIRE 112 704 112 672
WIRE 320 704 320 672
WIRE 416 704 416 672
WIRE 512 704 512 672
WIRE 608 704 608 672
WIRE 896 784 896 672
WIRE 320 800 320 768
WIRE 416 800 416 768
WIRE 416 800 320 800
WIRE 512 800 512 768
WIRE 512 800 416 800
WIRE 608 800 608 768
WIRE 608 800 512 800
WIRE 320 880 320 800
WIRE 896 960 896 864
WIRE -304 976 -304 672
WIRE 320 976 320 960
FLAG -320 384 0
FLAG 448 384 0
FLAG 112 176 0
FLAG 176 176 0
FLAG 240 176 0
FLAG -176 384 0
FLAG 736 80 Vout
FLAG 320 976 0
FLAG -16 768 0
FLAG 48 768 0
FLAG 112 768 0
FLAG -304 976 0
FLAG 608 672 Zout
FLAG 896 960 0
SYMBOL res 432 272 R0
SYMATTR InstName R1
SYMATTR Value 4.7
SYMBOL voltage -320 224 R0
WINDOW 123 24 124 Left 2
WINDOW 39 0 0 Left 0
SYMATTR Value2 AC 1
SYMATTR InstName V1
SYMATTR Value ""
SYMBOL WCAP-CSST_DCbias 96 112 R0
WINDOW 38 -131 134 Left 2
SYMATTR SpiceModel 50V1206X7R_1uF_885382208005
SYMATTR InstName C1
SYMBOL WCAP-CSST_DCbias 160 112 R0
WINDOW 38 -195 156 Left 2
SYMATTR SpiceModel 50V1206X7R_1uF_885382208005
SYMATTR InstName C3
SYMBOL WCAP-CSST_DCbias 224 112 R0
WINDOW 38 -259 112 Left 2
SYMATTR SpiceModel 50V1206X7R_1uF_885382208005
SYMATTR InstName C4
SYMBOL WCAP-CSGP_50V 576 112 R0
WINDOW 38 -12 135 Left 2
SYMATTR SpiceModel 1210_885012209073_10uF
SYMATTR InstName C5
SYMBOL WCAP-CSGP_50V 480 112 R0
WINDOW 38 85 159 Left 2
SYMATTR SpiceModel 1210_885012209073_10uF
SYMATTR InstName C2
SYMBOL WCAP-CSGP_50V 672 112 R0
WINDOW 38 -105 184 Left 2
SYMATTR SpiceModel 1210_885012209073_10uF
SYMATTR InstName C6
SYMBOL WCAP-CSGP_50V 768 112 R0
WINDOW 38 -201 204 Left 2
SYMATTR SpiceModel 1210_885012209073_10uF
SYMATTR InstName C7
SYMBOL WE-HCF -48 80 R0
SYMATTR SpiceModel 2013_7443634700_47u
SYMATTR InstName L2
SYMBOL voltage -176 256 R0
WINDOW 123 0 0 Left 0
WINDOW 39 0 0 Left 0
SYMATTR InstName V3
SYMATTR Value 26
SYMBOL ind -192 144 R0
SYMATTR InstName L3
SYMATTR Value 1000Meg
SYMBOL cap -224 64 R90
WINDOW 0 0 32 VBottom 2
WINDOW 3 32 32 VTop 2
SYMATTR InstName C10
SYMATTR Value 1000Meg
SYMBOL res 304 864 R0
SYMATTR InstName R2
SYMATTR Value 4.7
SYMBOL WCAP-CSST_DCbias -32 704 R0
WINDOW 38 -131 134 Left 2
SYMATTR SpiceModel 50V1206X7R_1uF_885382208005
SYMATTR InstName C8
SYMBOL WCAP-CSST_DCbias 32 704 R0
WINDOW 38 -195 156 Left 2
SYMATTR SpiceModel 50V1206X7R_1uF_885382208005
SYMATTR InstName C9
SYMBOL WCAP-CSST_DCbias 96 704 R0
WINDOW 38 -259 112 Left 2
SYMATTR SpiceModel 50V1206X7R_1uF_885382208005
SYMATTR InstName C11
SYMBOL WCAP-CSGP_50V 448 704 R0
WINDOW 38 -12 135 Left 2
SYMATTR SpiceModel 1210_885012209073_10uF
SYMATTR InstName C12
SYMBOL WCAP-CSGP_50V 352 704 R0
WINDOW 38 85 159 Left 2
SYMATTR SpiceModel 1210_885012209073_10uF
SYMATTR InstName C13
SYMBOL WCAP-CSGP_50V 544 704 R0
WINDOW 38 -105 184 Left 2
SYMATTR SpiceModel 1210_885012209073_10uF
SYMATTR InstName C14
SYMBOL WCAP-CSGP_50V 640 704 R0
WINDOW 38 -201 204 Left 2
SYMATTR SpiceModel 1210_885012209073_10uF
SYMATTR InstName C15
SYMBOL WE-HCF -176 672 R0
SYMATTR SpiceModel 2013_7443634700_47u
SYMATTR InstName L1
SYMBOL current 896 864 R180
WINDOW 0 24 80 Left 2
WINDOW 3 24 0 Left 2
WINDOW 123 24 -28 Left 2
WINDOW 39 0 0 Left 0
SYMATTR InstName I1
SYMATTR Value ""
SYMATTR Value2 AC 1
TEXT -304 -24 Left 2 !.ac dec 201 1 10meg
TEXT -40 -88 Left 5 ;Frequency response
TEXT -112 552 Left 5 ;Output impedance
